// ****************************************************************************
// 		  Advance Node PDK / Generic Resistor models
//
//  Copyright (c) 2014
//  Cadence Design Systems, Inc.  All rights reserved.
// 
// These models represent a pseudo-process and are intended to be use
// for demonstration purpose only.
// *****************************************************************************



simulator lang=spectre
library cds_ff_mpt
//  **********************************************************************
//  **********************************************************************
//        Model name      structure                 
//        -----------------------------------------
//        rnws	   N-well Resistor under STI
//        rnwo	   N-well Resistor under Oxide
//        rsnd	   N+ Diffused Resistor (salicide)
//        rspd	   P+ Diffused Resistor (salicide)
//        rsnp	   N+ Poly Resistor (salicide)
//        rspp	   P+ Poly Resistor (salicide)
//        rnsnd	   N+ Diffused Resistor (w/o salicide)
//        rnspd	   P+ Diffused Resistor (w/o salicide)
//        rnsnp	   N+ Poly Resistor (w/o salicide)
//        rnspp	   P+ Poly Resistor (w/o salicide)
//        resm1         Metal 1 Resistor
//        resm2         Metal 2 Resistor
//        resm3         Metal 3 Resistor
//        resm4         Metal 4 Resistor
//        resm5         Metal 5 Resistor
//        resm6         Metal 6 Resistor
//        resm7         Metal 7 Resistor
//        resm8         Metal 8 Resistor
//        resm9         Metal 9 Resistor
//        resm10        Metal10 Resistor
//        resm11	   Metal11 Resistor
//        rnws_m        NW diff(under STI)
//        rnwo_m        NW diff(under OD)
//        rsnd_m        N+diff w/i silicide 
//        rspd_m        P+diff w/i silicide
//        rsnp_dis      N+Poly w/i silicide
//        rspp_dis      P+Poly w/i silicide
//        rnsnd_m       N+diff w/o silicide
//        rnspd_m       P+diff w/o silicide
//        rnsnp_dis     N+Poly w/o silicide
//        rnspp_dis     P+Poly w/o silicide
//        ---------------------------------------

section tt_res
parameters     r_rnws         =  1e3          
parameters     r_rnwo	  =  450
parameters     r_rsnd	  =  18
parameters     r_dxw_rsnd    =  0
parameters     r_rspd	  =  15
parameters     r_dxw_rspd    =  0
parameters     r_rsnp	  =  15
parameters     r_dxw_rsnp    =  0             
parameters     r_rspp	  =  15
parameters     r_dxw_rspp    =  0            
parameters     r_rnsnd	  =  100
parameters     r_rend_rnsnd  =  8.46e-6     
parameters     r_dxl_rnsnd   =  0
parameters     r_dxw_rnsnd   =  0            
parameters     r_rnspd	  =  200 
parameters     r_rend_rnspd  =  2.95e-5     
parameters     r_dxl_rnspd   =  0   
parameters     r_dxw_rnspd   =  0            
parameters     r_rnsnp	  =  200
parameters     r_rend_rnsnp  =  1.44e-5   
parameters     r_dxl_rnsnp   =  0        
parameters     r_dxw_rnsnp   =  0            
parameters     r_rnspp	  =  600
parameters     r_rend_rnspp  =  7.015e-6     
parameters     r_dxl_rnspp   =  0  
parameters     r_dxw_rnspp   =  0          
parameters     r_resm1            =  0.0736
parameters     r_resm2            =  0.0604 
parameters     r_resm3            =  0.0604 
parameters     r_resm4            =  0.0604 
parameters     r_resm5            =  0.0604 
parameters     r_resm6            =  0.0604
parameters     r_resm7            =  0.0604
parameters     r_resm8            =  0.0214
parameters     r_resm9            =  0.0214 
parameters     r_resm10           =  0.0214 
parameters     r_resm11	          =  0.021 
parameters    fac_mm_r_resm1             =  0
parameters    fac_mm_r_resm2             =  0
parameters    fac_mm_r_resm3             =  0
parameters    fac_mm_r_resm4             =  0
parameters    fac_mm_r_resm5             =  0
parameters    fac_mm_r_resm6             =  0
parameters    fac_mm_r_resm7             =  0
parameters    fac_mm_r_resm8             =  0
parameters    fac_mm_r_resm9             =  0
parameters    fac_mm_r_resm10            =  0
parameters    fac_mm_r_resm11  	         =  0
parameters    fac_mm_r_rsnp    	         =  0
parameters    fac_mm_dxw_rsnp       =  0
parameters    fac_mm_r_rnsnp   	         =  0
parameters    fac_mm_dxw_rnsnp      =  0
parameters    fac_mm_rend_rnsnp     =  0
parameters    fac_mm_r_rspp    	         =  0
parameters    fac_mm_dxw_rspp       =  0
parameters    fac_mm_r_rnspp   	         =  0
parameters    fac_mm_dxw_rnspp      =  0
parameters    fac_mm_rend_rnspp     =  0
parameters    fac_mm_r_rnsnd   	         =  0
parameters    fac_mm_dxw_rnsnd      =  0
parameters    fac_mm_rend_rnsnd     =  0
parameters    fac_mm_r_rnspd   	         =  0
parameters    fac_mm_dxw_rnspd      =  0
parameters    fac_mm_rend_rnspd     =  0
parameters    fac_mm_r_rsnd   	         =  0
parameters    fac_mm_dxw_rsnd      =  0
parameters    fac_mm_r_rspd   	         =  0
parameters    fac_mm_dxw_rspd      =  0
parameters    fac_mm_r_rnwo   	         =  0
parameters    fac_mm_r_rnws   	         =  0
include "cds_ff_mpt_resistor.scs" section=res
endsection tt_res


section ss_res
parameters     r_rnws                =  1e3  * 1.20      
parameters     r_rnwo	         =  450 * 1.20
parameters     r_rsnd	         =  18 * 1.20
parameters     r_dxw_rsnd           =  0 + 0.015u
parameters     r_rspd	         =  15* 1.20
parameters     r_dxw_rspd           =  0+ 0.015u
parameters     r_rsnp	         =  15* 1.20
parameters     r_dxw_rsnp           =  0    + 0.009u         
parameters     r_rspp	         =  15* 1.20
parameters     r_dxw_rspp           =         0   + 0.012u         
parameters     r_rnsnd	         =  100* 1.15
parameters     r_rend_rnsnd         =  8.46e-6 * 1.90  
parameters     r_dxl_rnsnd          =  0+ 0.0u
parameters     r_dxw_rnsnd          =  0  + 0.040u           
parameters     r_rnspd	         =  200  * 1.25
parameters     r_rend_rnspd         =  2.95e-5    * 1.60  
parameters     r_dxl_rnspd          =  0   + 0.0u
parameters     r_dxw_rnspd          =  0  + 0.022u          
parameters     r_rnsnp	         =  200* 1.15
parameters     r_rend_rnsnp         =  1.44e-5   * 1.90 
parameters     r_dxl_rnsnp          =  0  + 0.0u       
parameters     r_dxw_rnsnp          =  0  + 0.032u          
parameters     r_rnspp	         =  600 * 1.15
parameters     r_rend_rnspp         =  7.015e-6     * 1.60 
parameters     r_dxl_rnspp          =  0  + 0.0u
parameters     r_dxw_rnspp          =  0 + 0.035u         
parameters     r_resm1                   =  0.0736  * 1.20
parameters     r_resm2                   =  0.0604  * 1.20
parameters     r_resm3                   =  0.0604  * 1.20 
parameters     r_resm4                   =  0.0604  * 1.20 
parameters     r_resm5                   =  0.0604  * 1.20 
parameters     r_resm6                   =  0.0604  * 1.20
parameters     r_resm7                   =  0.0604  * 1.20
parameters     r_resm8                   =  0.0214  * 1.20
parameters     r_resm9                   =  0.0214  * 1.20
parameters     r_resm10                  =  0.0214  * 1.20 
parameters     r_resm11	                 =  0.021   * 1.20 
parameters    fac_mm_r_resm1             =  0
parameters    fac_mm_r_resm2             =  0
parameters    fac_mm_r_resm3             =  0
parameters    fac_mm_r_resm4             =  0
parameters    fac_mm_r_resm5             =  0
parameters    fac_mm_r_resm6             =  0
parameters    fac_mm_r_resm7             =  0
parameters    fac_mm_r_resm8             =  0
parameters    fac_mm_r_resm9             =  0
parameters    fac_mm_r_resm10            =  0
parameters    fac_mm_r_resm11  	         =  0
parameters    fac_mm_r_rsnp    	         =  0
parameters    fac_mm_dxw_rsnp       =  0
parameters    fac_mm_r_rnsnp   	         =  0
parameters    fac_mm_dxw_rnsnp      =  0
parameters    fac_mm_rend_rnsnp     =  0
parameters    fac_mm_r_rspp    	         =  0
parameters    fac_mm_dxw_rspp       =  0
parameters    fac_mm_r_rnspp   	         =  0
parameters    fac_mm_dxw_rnspp      =  0
parameters    fac_mm_rend_rnspp     =  0
parameters    fac_mm_r_rnsnd   	         =  0
parameters    fac_mm_dxw_rnsnd      =  0
parameters    fac_mm_rend_rnsnd     =  0
parameters    fac_mm_r_rnspd   	         =  0
parameters    fac_mm_dxw_rnspd      =  0
parameters    fac_mm_rend_rnspd     =  0
parameters    fac_mm_r_rsnd   	         =  0
parameters    fac_mm_dxw_rsnd      =  0
parameters    fac_mm_r_rspd   	         =  0
parameters    fac_mm_dxw_rspd      =  0
parameters    fac_mm_r_rnwo   	         =  0
parameters    fac_mm_r_rnws   	         =  0
include "cds_ff_mpt_resistor.scs" section=res
endsection ss_res



section ff_res
parameters     r_rnws         =  1e3  * 0.8      
parameters     r_rnwo	  =  450 * 0.8 
parameters     r_rsnd	  =  18 * 0.8 
parameters     r_dxw_rsnd    =  0 - 0.015u
parameters     r_rspd	  =  15* 0.8 
parameters     r_dxw_rspd    =  0 - 0.015u
parameters     r_rsnp	  =  15* 0.8 
parameters     r_dxw_rsnp    =  0 - 0.009u         
parameters     r_rspp	  =  15*0.8 
parameters     r_dxw_rspp    =  0  - 0.012u         
parameters     r_rnsnd	  =  100* 0.85 
parameters     r_rend_rnsnd  =  8.46e-6 * 0.1  
parameters     r_dxl_rnsnd   =  0
parameters     r_dxw_rnsnd   =  0  - 0.040u           
parameters     r_rnspd	  =  200  * 0.75
parameters     r_rend_rnspd  =  2.95e-5    * 0.4  
parameters     r_dxl_rnspd   =  0   + 0.0u
parameters     r_dxw_rnspd   =  0  - 0.022u          
parameters     r_rnsnp	  =  200* 0.85
parameters     r_rend_rnsnp  =  1.44e-5   *0.1 
parameters     r_dxl_rnsnp   =  0  + 0.0u       
parameters     r_dxw_rnsnp   =  0  - 0.032u          
parameters     r_rnspp	  =  600 *0.85
parameters     r_rend_rnspp  =  7.015e-6     * 0.4
parameters     r_dxl_rnspp   =  0  + 0.0u
parameters     r_dxw_rnspp   =  0 - 0.035u         
parameters     r_resm1            =  0.0736  * 0.8
parameters     r_resm2            =  0.0604  * 0.8
parameters     r_resm3            =  0.0604  * 0.8
parameters     r_resm4            =  0.0604  * 0.8 
parameters     r_resm5            =  0.0604  * 0.8      
parameters     r_resm6            =  0.0604  * 0.8     
parameters     r_resm7            =  0.0604  * 0.8     
parameters     r_resm8            =  0.0214  * 0.8     
parameters     r_resm9            =  0.0214  * 0.8
parameters     r_resm10           =  0.0214  * 0.8 
parameters     r_resm11	          =  0.021   * 0.8 
parameters    fac_mm_r_resm1             =  0
parameters    fac_mm_r_resm2             =  0
parameters    fac_mm_r_resm3             =  0
parameters    fac_mm_r_resm4             =  0
parameters    fac_mm_r_resm5             =  0
parameters    fac_mm_r_resm6             =  0
parameters    fac_mm_r_resm7             =  0
parameters    fac_mm_r_resm8             =  0
parameters    fac_mm_r_resm9             =  0
parameters    fac_mm_r_resm10            =  0
parameters    fac_mm_r_resm11  	         =  0
parameters    fac_mm_r_rsnp    	         =  0
parameters    fac_mm_dxw_rsnp       =  0
parameters    fac_mm_r_rnsnp   	         =  0
parameters    fac_mm_dxw_rnsnp      =  0
parameters    fac_mm_rend_rnsnp     =  0
parameters    fac_mm_r_rspp    	         =  0
parameters    fac_mm_dxw_rspp       =  0
parameters    fac_mm_r_rnspp   	         =  0
parameters    fac_mm_dxw_rnspp      =  0
parameters    fac_mm_rend_rnspp     =  0
parameters    fac_mm_r_rnsnd   	         =  0
parameters    fac_mm_dxw_rnsnd      =  0
parameters    fac_mm_rend_rnsnd     =  0
parameters    fac_mm_r_rnspd   	         =  0
parameters    fac_mm_dxw_rnspd      =  0
parameters    fac_mm_rend_rnspd     =  0
parameters    fac_mm_r_rsnd   	         =  0
parameters    fac_mm_dxw_rsnd      =  0
parameters    fac_mm_r_rspd   	         =  0
parameters    fac_mm_dxw_rspd      =  0
parameters    fac_mm_r_rnwo   	         =  0
parameters    fac_mm_r_rnws   	         =  0
include "cds_ff_mpt_resistor.scs" section=res
endsection ff_res





section  res




//  *********************************   N-well Resistor under STI  *********************************
subckt cds_ff_mpt_rnws ( n1 n2 ) 
parameters l=1.0e-6 w=1.0e-6 factor=1.0 mf=1.0 mismod=0
+ geo_fac = 1/sqrt(mf*l*factor*w*factor*1e12)
+ drsh_mis = 0.02*geo_fac*fac_mm_r_rnws*mismod
+ dw = 2e-9                     pvc1 = 7.6e-7                 
+ pvc2 = -4.77e-4               ptc1 = 3.71e-3                ptc2 = 1e-7  
+rsh = r_rnws*(1+drsh_mis)      pt = temp                 tfac = 1.0+ptc1*(pt-25.0)+ptc2*(pt-25.0)*(pt-25.0) 
r1 ( n1 n2 ) bsource r=rsh/mf*l*factor/(w*factor-dw)*(1+pvc1*(abs(v(n2,n1))/factor)+pvc2*(v(n2,n1)/factor)*(v(n2,n1)/factor))*tfac
ends rnws


//  *********************************   N-well Resistor under Oxide  *********************************
                         

subckt cds_ff_mpt_rnwo ( n1 n2 ) 
parameters l=1.0e-6 w=1.0e-6 factor=1.0 mf=1.0 mismod=0
+ geo_fac = 1/sqrt(mf*l*factor*w*factor*1e12)
+ drsh_mis = 0.02*geo_fac*fac_mm_r_rnwo*mismod
+ dw = 1.4e-9                   pvc1 = 0.0124                 
+ pvc2 = -2.98e-4               ptc1 = 2.83e-3                ptc2 = 1.04e-5  
+rsh = r_rnwo*(1+drsh_mis)            pt = temp                 tfac = 1.0+ptc1*(pt-25.0)+ptc2*(pt-25.0)*(pt-25.0) 
r1 ( n1 n2 ) bsource r=rsh/mf*l*factor/(w*factor-dw)*(1+pvc1*(abs(v(n2,n1))/factor)+pvc2*(v(n2,n1)/factor)*(v(n2,n1)/factor))*tfac
ends rnwo

//  *********************************   N+ Diffused Resistor (salicide)  *********************************
                      

subckt cds_ff_mpt_rsnd ( n1 n2 ) 
parameters l=1.0e-6 w=1.0e-6 factor=1.0 mf=1.0 mismod=0
+ geo_fac = 1/sqrt(mf*l*factor*w*factor*1e12)
+ drsh_mis = 0.02*geo_fac*fac_mm_r_rsnd*mismod
+ dw_mis = 0.01*geo_fac*fac_mm_dxw_rsnd*mismod
+ pvc1 = 4.77e-7                
+ pvc2 = 7.63e-13               ptc1 = 3.2e-3                 ptc2 = 4.06e-7 
+rsh = r_rsnd*(1+drsh_mis)               dw = r_dxw_rsnd*(1+dw_mis)              pt = temp                
+tfac = 1.0+ptc1*(pt-25.0)+ptc2*(pt-25.0)*(pt-25.0) 
r1 ( n1 n2 ) bsource r=rsh/mf*l*factor/(w*factor-dw)*(1+pvc1*(abs(v(n2,n1))/l/factor)+pvc2*(v(n2,n1)/l/factor)*(v(n2,n1)/l/factor))*tfac
ends rsnd

//  *********************************   P+ Diffused Resistor (salicide)  *********************************
                     

subckt cds_ff_mpt_rspd ( n1 n2 ) 
parameters l=1.0e-6 w=1.0e-6 factor=1.0 mf=1.0  mismod=0
+ geo_fac = 1/sqrt(mf*l*factor*w*factor*1e12) 
+ drsh_mis = 0.02*geo_fac*fac_mm_r_rspd*mismod
+ dw_mis = 0.01*geo_fac*fac_mm_dxw_rspd*mismod
+ pvc1 = 6.04e-7                
+ pvc2 = 7.82e-13               ptc1 = 3.55e-3                ptc2 = -3.88e-7   
+rsh = r_rspd*(1+drsh_mis)               dw = r_dxw_rspd*(1+dw_mis)              pt = temp                 
+tfac = 1.0+ptc1*(pt-25.0)+ptc2*(pt-25.0)*(pt-25.0) 
r1 ( n1 n2 ) bsource r=rsh/mf*l*factor/(w*factor-dw)*(1+pvc1*(abs(v(n2,n1))/l/factor)+pvc2*(v(n2,n1)/l/factor)*(v(n2,n1)/l/factor))*tfac
ends rspd

//  *********************************   N+ Poly Resistor (salicide) *********************************

                       

subckt cds_ff_mpt_rsnp ( n1 n2 ) 
parameters l=1.0e-6 w=1.0e-6 factor=1.0 mf=1.0 mismod=0
+ geo_fac = 1/sqrt(mf*l*factor*w*factor*1e12) 
+ drsh_mis = 0.02*geo_fac*fac_mm_r_rsnp*mismod
+ dw_mis = 0.01*geo_fac*fac_mm_dxw_rsnp*mismod
+ pvc1 = 1.51e-6                
+ pvc2 = 1.13e-12               ptc1 = 3.32e-3                ptc2 = -1.71e-6  
+rsh = r_rsnp*(1+drsh_mis)             dw = r_dxw_rsnp*(1+dw_mis)            pt = temp                 
+tfac = 1.0+ptc1*(pt-25.0)+ptc2*(pt-25.0)*(pt-25.0) 
r1 ( n1 n2 ) bsource r=rsh/mf*l*factor/(w*factor-dw)*(1+pvc1*(abs(v(n2,n1))/l/factor)+pvc2*(v(n2,n1)/l/factor)*(v(n2,n1)/l/factor))*tfac
ends rsnp


//  *********************************   P+ Poly Resistor (salicide) *********************************

subckt cds_ff_mpt_rspp ( n1 n2 ) 
parameters  l=1.0e-6 w=1.0e-6 factor=1.0 mf=1.0  mismod=0
+ geo_fac = 1/sqrt(mf*l*factor*w*factor*1e12)   
+ drsh_mis = 0.02*geo_fac*fac_mm_r_rspp *mismod
+ dw_mis = 0.01*geo_fac*fac_mm_dxw_rspp*mismod
+ pvc1 = 1.82e-6                
+ pvc2 = 1.23e-12               ptc1 = 3.28e-3                ptc2 = -1.09e-6        
+rsh = r_rspp*(1+drsh_mis)            dw = r_dxw_rspp*(1+dw_mis)            pt = temp                
+tfac = 1.0+ptc1*(pt-25.0)+ptc2*(pt-25.0)*(pt-25.0) 
r1 ( n1 n2 ) bsource r=rsh/mf*l*factor/(w*factor-dw)*(1+pvc1*(abs(v(n2,n1))/l/factor)+pvc2*(v(n2,n1)/l/factor)*(v(n2,n1)/l/factor))*tfac
ends rspp


//  *********************************  N+ Diffused Resistor (w/o salicide)  *********************************
          
subckt cds_ff_mpt_rnsnd ( n1 n2 ) 
parameters  l=1.0e-6 w=1.0e-6 factor=1.0 mf=1.0 mismod=0 
+ geo_fac = 1/sqrt(mf*l*factor*w*factor*1e12)  
+ drsh_mis = 0.02*geo_fac*fac_mm_r_rnsnd *mismod
+ dw_mis = 0.01*geo_fac*fac_mm_dxw_rnsnd*mismod 
+ drend_mis = 0.01*geo_fac*fac_mm_rend_rnsnd*mismod          
+pvcp1 = -0.296                pvcp2 = -8.04e-6              
+pvcp3 = -2.449                ptcp1 = 2.565e-3              ptcp2 = 5.5e-7                
+pvce1 = -0.0689               pvce2 = 1.12e3                pvce3 = -0.182                
+ptce1 = 1.875e-3              ptce2 = 2.5e-6                
+rsh = r_rnsnd*(1+drsh_mis)             rend0 = r_rend_rnsnd*(1+drend_mis)    dw = r_dxw_rnsnd*(1+dw_mis)             
+dl = 0             pt = temp                  tface = 1.0+ptce1*(pt-25.0)+ptce2*(pt-25.0)*(pt-25.0) 
+tfacp = 1.0+ptcp1*(pt-25.0)+ptcp2*(pt-25.0)*(pt-25.0) 
rend1 ( n1 3 ) bsource r=rend0/mf/w/factor*tface*(1+pvce1*(tanh(pvce2*abs(v(n1,3))+pvce3)-tanh(pvce3)))
rp ( 3 4 ) bsource r=rsh/mf*(l*factor-dl)/(w*factor-dw)*tfacp*(1+pvcp1*(tanh(pvcp2*abs(v(3,4)/(l*factor-dl))+pvcp3)-tanh(pvcp3)))
rend2 ( 4 n2 ) bsource r=rend0/mf/w/factor*tface*(1+pvce1*(tanh(pvce2*abs(v(4,n2))+pvce3)-tanh(pvce3)))
ends rnsnd




                                
                                  
//  *********************************  P+ Diffused Resistor (w/o salicide)  *********************************
           
subckt cds_ff_mpt_rnspd ( n1 n2 )
parameters  l=1.0e-6 w=1.0e-6 factor=1.0 mf=1.0 mismod=0     
+ geo_fac = 1/sqrt(mf*l*factor*w*factor*1e12) 
+ drsh_mis = 0.02*geo_fac*fac_mm_r_rnspd *mismod 
+ dw_mis = 0.01*geo_fac*fac_mm_dxw_rnspd*mismod 
+ drend_mis = 0.01*geo_fac*fac_mm_rend_rnspd*mismod          
+ pvcp1 = -0.389                pvcp2 = -1.73e-6              
+ pvcp3 = -2.098                ptcp1 = 1.51e-3               ptcp2 = 4.14e-6               
+ pvce1 = 0.035                 pvce2 = 259                   pvce3 = -0.0992               
+ ptce1 = -1e-3                 ptce2 = 2e-6                  
+rsh = r_rnspd*(1+drsh_mis)              rend0 = r_rend_rnspd*(1+drend_mis)         dw = r_dxw_rnspd*(1+dw_mis)             
+dl = 0             pt = temp                 tface = 1.0+ptce1*(pt-25.0)+ptce2*(pt-25.0)*(pt-25.0) 
+tfacp = 1.0+ptcp1*(pt-25.0)+ptcp2*(pt-25.0)*(pt-25.0) 
rend1 ( n1 3 ) bsource r=rend0/mf/w/factor*tface*(1+pvce1*(tanh(pvce2*abs(v(n1,3))+pvce3)-tanh(pvce3)))
rp ( 3 4 ) bsource r=rsh/mf*(l*factor-dl)/(w*factor-dw)*tfacp*(1+pvcp1*(tanh(pvcp2*abs(v(3,4)/(l*factor-dl))+pvcp3)-tanh(pvcp3)))
rend2 ( 4 n2 ) bsource r=rend0/mf/w/factor*tface*(1+pvce1*(tanh(pvce2*abs(v(4,n2))+pvce3)-tanh(pvce3)))
ends rnspd
                                  
                                  

 
//  *********************************    N+ Poly Resistor (w/o salicide)  *********************************
                         
subckt cds_ff_mpt_rnsnp ( n1 n2 ) 
parameters l=1.0e-6 w=1.0e-6 factor=1.0 mf=1.0 mismod=0
+ geo_fac = 1/sqrt(mf*l*factor*w*factor*1e12)    
+ drsh_mis = 0.02*geo_fac*fac_mm_r_rnsnp*mismod    
+ dw_mis = 0.01*geo_fac*fac_mm_dxw_rnsnp*mismod       
+ drend_mis = 0.01*geo_fac*fac_mm_rend_rnsnp*mismod        
+pvcp1 = -0.788                pvcp2 = -9.8e-5               
+pvcp3 = -2.453                ptcp1 = 9.89e-4               ptcp2 = 2.5e-6                
+pvce1 = -0.0227               pvce2 = -654                  pvce3 = 0.766                 
+ptce1 = 3e-3                  ptce2 = 8e-6   
+rsh = r_rnsnp*(1+drsh_mis)            rend0 = r_rend_rnsnp*(1+drend_mis)       dw = r_dxw_rnsnp*(1+dw_mis)           
+dl = 0           pt = temp                 tface = 1.0+ptce1*(pt-25.0)+ptce2*(pt-25.0)*(pt-25.0) 
+tfacp = 1.0+ptcp1*(pt-25.0)+ptcp2*(pt-25.0)*(pt-25.0) 
rend1 ( n1 3 ) bsource r=rend0/mf/w/factor*tface*(1+pvce1*(tanh(pvce2*abs(v(n1,3))+pvce3)-tanh(pvce3)))
rp ( 3 4 ) bsource r=rsh/mf*(l*factor-dl)/(w*factor-dw)*tfacp*(1+pvcp1*(tanh(pvcp2*abs(v(3,4)/(l*factor-dl))+pvcp3)-tanh(pvcp3)))
rend2 ( 4 n2 ) bsource r=rend0/mf/w/factor*tface*(1+pvce1*(tanh(pvce2*abs(v(4,n2))+pvce3)-tanh(pvce3)))
ends rnsnp
 
 
//  *********************************  P+ Poly Resistor (w/o salicide)  *********************************
                     
subckt cds_ff_mpt_rnspp ( n1 n2 ) 
parameters l=1.0e-6 w=1.0e-6 factor=1.0 mf=1.0 mismod=0
+ geo_fac = 1/sqrt(mf*l*factor*w*factor*1e12)   
+ drsh_mis = 0.02*geo_fac*fac_mm_r_rnspp*mismod    
+ dw_mis = 0.01*geo_fac*fac_mm_dxw_rnspp*mismod    
+ drend_mis = 0.01*geo_fac*fac_mm_rend_rnspp*mismod       
+pvcp1 = 1.1e-3                pvcp2 = -2.69e-5              
+pvcp3 = 2.957                 ptcp1 = -5e-4                 ptcp2 = 8.692e-15             
+pvce1 = 0.0104                pvce2 = -7.216                pvce3 = 0.172                 
+ptce1 = -8e-7                 ptce2 = -5e-6   
+rsh = r_rnspp*(1+drsh_mis)            rend0 = r_rend_rnspp*(1+drend_mis)       dw = r_dxw_rnspp*(1+dw_mis)           
+dl = 0           pt = temp                 tface = 1.0+ptce1*(pt-25.0)+ptce2*(pt-25.0)*(pt-25.0) 
+tfacp = 1.0+ptcp1*(pt-25.0)+ptcp2*(pt-25.0)*(pt-25.0) 
rend1 ( n1 3 ) bsource r=rend0/mf/w/factor*tface*(1+pvce1*(tanh(pvce2*abs(v(n1,3))+pvce3)-tanh(pvce3)))
rp ( 3 4 ) bsource r=rsh/mf*(l*factor-dl)/(w*factor-dw)*tfacp*(1+pvcp1*(tanh(pvcp2*abs(v(3,4)/(l*factor-dl))+pvcp3)-tanh(pvcp3)))
rend2 ( 4 n2 ) bsource r=rend0/mf/w/factor*tface*(1+pvce1*(tanh(pvce2*abs(v(4,n2))+pvce3)-tanh(pvce3)))
ends rnspp

               
//  *********************************     Metal 1      ***********************************               
subckt cds_ff_mpt_resm1 ( n1 n2 ) 
parameters l=1.0e-6 w=1.0e-6 factor=1.0 mf=1.0  mismod=0
+ geo_fac = 1/sqrt(mf*l*factor*w*factor*1e12)  
+ drsh_mis = 0.02*geo_fac*fac_mm_r_resm1*mismod 
+dw = 0                        pvc1 = 0                      
+pvc2 = 0                      ptc1 = 2.92e-3                ptc2 = -1.22e-7               
+rsh = r_resm1*(1+drsh_mis)                 pt = temp                  tfac = 1.0+ptc1*(pt-25.0)+ptc2*(pt-25.0)*(pt-25.0) 
r1 ( n1 n2 ) bsource r=rsh/mf*l*factor/(w*factor-dw)*(1+pvc1*(abs(v(n2,n1))/l/factor)+pvc2*(v(n2,n1)/l/factor)*(v(n2,n1)/l/factor))*tfac
ends resm1


                      
//  *********************************     Metal 2      ***********************************   
subckt cds_ff_mpt_resm2 ( n1 n2 )  
parameters l=1.0e-6 w=1.0e-6 factor=1.0 mf=1.0 mismod=0
+ geo_fac = 1/sqrt(mf*l*factor*w*factor*1e12)
+ drsh_mis = 0.02*geo_fac*fac_mm_r_resm2*mismod 
+dw = 0                        pvc1 = 0                      
+pvc2 = 0                      ptc1 = 3.077e-3               ptc2 = -1.14e-7     
+rsh =  r_resm2*(1+drsh_mis)                   pt = temp                  tfac = 1.0+ptc1*(pt-25.0)+ptc2*(pt-25.0)*(pt-25.0)
r1 ( n1 n2 ) bsource r=rsh/mf*l*factor/(w*factor-dw)*(1+pvc1*(abs(v(n2,n1))/l/factor)+pvc2*(v(n2,n1)/l/factor)*(v(n2,n1)/l/factor))*tfac
ends resm2

                      
//  *********************************     Metal 3      ***********************************   
subckt cds_ff_mpt_resm3 ( n1 n2 )  
parameters l=1.0e-6 w=1.0e-6 factor=1.0 mf=1.0  mismod=0
+ geo_fac = 1/sqrt(mf*l*factor*w*factor*1e12)
+ drsh_mis = 0.02*geo_fac*fac_mm_r_resm3*mismod 
+dw = 0                        pvc1 = 0                      
+pvc2 = 0                      ptc1 = 3.077e-3               ptc2 = -1.14e-7   
+rsh = r_resm3*(1+drsh_mis)                    pt = temp                  tfac = 1.0+ptc1*(pt-25.0)+ptc2*(pt-25.0)*(pt-25.0)
r1 ( n1 n2 ) bsource r=rsh/mf*l*factor/(w*factor-dw)*(1+pvc1*(abs(v(n2,n1))/l/factor)+pvc2*(v(n2,n1)/l/factor)*(v(n2,n1)/l/factor))*tfac
ends resm3


//  *********************************     Metal 4      ***********************************               
subckt cds_ff_mpt_resm4 ( n1 n2 )  
parameters l=1.0e-6 w=1.0e-6 factor=1.0 mf=1.0  mismod=0
+ geo_fac = 1/sqrt(mf*l*factor*w*factor*1e12)
+ drsh_mis = 0.02*geo_fac*fac_mm_r_resm4*mismod 
+dw = 0                        pvc1 = 0                      
+pvc2 = 0                      ptc1 = 3.077e-3               ptc2 = -1.14e-7               
+rsh = r_resm4*(1+drsh_mis)                    pt = temp                  tfac = 1.0+ptc1*(pt-25.0)+ptc2*(pt-25.0)*(pt-25.0)
r1 ( n1 n2 ) bsource r=rsh/mf*l*factor/(w*factor-dw)*(1+pvc1*(abs(v(n2,n1))/l/factor)+pvc2*(v(n2,n1)/l/factor)*(v(n2,n1)/l/factor))*tfac
ends resm4


//  *********************************     Metal 5      ***********************************                
subckt cds_ff_mpt_resm5 ( n1 n2 ) 
parameters l=1.0e-6 w=1.0e-6 factor=1.0 mf=1.0 mismod=0
+ geo_fac = 1/sqrt(mf*l*factor*w*factor*1e12)
+ drsh_mis = 0.02*geo_fac*fac_mm_r_resm5*mismod 
+dw = 0                        pvc1 = 0                      
+pvc2 = 0                      ptc1 = 3.077e-3               ptc2 = -1.14e-7               
+rsh = r_resm5*(1+drsh_mis)                    pt = temp                  tfac = 1.0+ptc1*(pt-25.0)+ptc2*(pt-25.0)*(pt-25.0)
r1 ( n1 n2 ) bsource r=rsh/mf*l*factor/(w*factor-dw)*(1+pvc1*(abs(v(n2,n1))/l/factor)+pvc2*(v(n2,n1)/l/factor)*(v(n2,n1)/l/factor))*tfac
ends resm5


                        
//  *********************************     Metal 6      ***********************************   
subckt cds_ff_mpt_resm6 ( n1 n2 )  
parameters l=1.0e-6 w=1.0e-6 factor=1.0 mf=1.0  mismod=0
+ geo_fac = 1/sqrt(mf*l*factor*w*factor*1e12) 
+ drsh_mis = 0.02*geo_fac*fac_mm_r_resm6*mismod 
+dw = 0                        pvc1 = 0                      
+pvc2 = 0                      ptc1 = 3.077e-3               ptc2 = -1.14e-7 
+rsh = r_resm6*(1+drsh_mis)                    pt = temp                  tfac = 1.0+ptc1*(pt-25.0)+ptc2*(pt-25.0)*(pt-25.0)
r1 ( n1 n2 ) bsource r=rsh/mf*l*factor/(w*factor-dw)*(1+pvc1*(abs(v(n2,n1))/l/factor)+pvc2*(v(n2,n1)/l/factor)*(v(n2,n1)/l/factor))*tfac
ends resm6


                          
//  *********************************     Metal 7      ***********************************   
subckt cds_ff_mpt_resm7 ( n1 n2 )   
parameters l=1.0e-6 w=1.0e-6 factor=1.0 mf=1.0 mismod=0
+ geo_fac = 1/sqrt(mf*l*factor*w*factor*1e12)
+ drsh_mis = 0.02*geo_fac*fac_mm_r_resm7*mismod 
+dw = 0                        pvc1 = 0                      
+pvc2 = 0                      ptc1 = 3.077e-3               ptc2 = -1.14e-7 
+rsh =r_resm7*(1+drsh_mis)                    pt = temp                  tfac = 1.0+ptc1*(pt-25.0)+ptc2*(pt-25.0)*(pt-25.0)
r1 ( n1 n2 ) bsource r=rsh/mf*l*factor/(w*factor-dw)*(1+pvc1*(abs(v(n2,n1))/l/factor)+pvc2*(v(n2,n1)/l/factor)*(v(n2,n1)/l/factor))*tfac
ends resm7


                 
//  *********************************     Metal 8      ***********************************   
subckt cds_ff_mpt_resm8 ( n1 n2 ) 
parameters l=1.0e-6 w=1.0e-6 factor=1.0 mf=1.0 mismod=0
+ geo_fac = 1/sqrt(mf*l*factor*w*factor*1e12)
+ drsh_mis = 0.02*geo_fac*fac_mm_r_resm8*mismod 
+dw = 0                        pvc1 = 0                      
+pvc2 = 0                      ptc1 = 3.506e-3               ptc2 = -3.6e-7 
+rsh =r_resm8*(1+drsh_mis)                  pt = temp                  tfac = 1.0+ptc1*(pt-25.0)+ptc2*(pt-25.0)*(pt-25.0)
r1 ( n1 n2 ) bsource r=rsh/mf*l*factor/(w*factor-dw)*(1+pvc1*(abs(v(n2,n1))/l/factor)+pvc2*(v(n2,n1)/l/factor)*(v(n2,n1)/l/factor))*tfac
ends resm8


//  *********************************     Metal 9      ***********************************   
subckt cds_ff_mpt_resm9 ( n1 n2 ) 
parameters l=1.0e-6 w=1.0e-6 factor=1.0 mf=1.0  mismod=0
+ geo_fac = 1/sqrt(mf*l*factor*w*factor*1e12)
+ drsh_mis = 0.02*geo_fac*fac_mm_r_resm9*mismod 
+dw = 0                        pvc1 = 0                      
+pvc2 = 0                      ptc1 = 3.506e-3               ptc2 = -3.6e-7 
+rsh = r_resm9*(1+drsh_mis)                 pt = temp                  tfac = 1.0+ptc1*(pt-25.0)+ptc2*(pt-25.0)*(pt-25.0)
r1 ( n1 n2 ) bsource r=rsh/mf*l*factor/(w*factor-dw)*(1+pvc1*(abs(v(n2,n1))/l/factor)+pvc2*(v(n2,n1)/l/factor)*(v(n2,n1)/l/factor))*tfac
ends resm9


                         
//  *********************************     Metal 10      ***********************************   
subckt cds_ff_mpt_resm10 ( n1 n2 )  
parameters l=1.0e-6 w=1.0e-6 factor=1.0 mf=1.0 mismod=0
+ geo_fac = 1/sqrt(mf*l*factor*w*factor*1e12)
+ drsh_mis = 0.02*geo_fac*fac_mm_r_resm10*mismod 
+dw = 0                        pvc1 = 0                      
+pvc2 = 0                      ptc1 = 3.506e-3               ptc2 = -3.6e-7 
+rsh = r_resm10*(1+drsh_mis)                pt = temp                  tfac = 1.0+ptc1*(pt-25.0)+ptc2*(pt-25.0)*(pt-25.0)
r1 ( n1 n2 ) bsource r=rsh/mf*l*factor/(w*factor-dw)*(1+pvc1*(abs(v(n2,n1))/l/factor)+pvc2*(v(n2,n1)/l/factor)*(v(n2,n1)/l/factor))*tfac
ends resm10


                             
//  *********************************     Metal 11      ***********************************   
subckt cds_ff_mpt_resm11 ( n1 n2 )  
parameters  l=1.0e-6 w=1.0e-6 factor=1.0 mf=1.0  mismod=0
+ geo_fac = 1/sqrt(mf*l*factor*w*factor*1e12)
+ drsh_mis = 0.02*geo_fac*fac_mm_r_resm11*mismod 
+dw = 0                        pvc1 = 0                      
+pvc2 = 0                      ptc1 = 3.89e-3                ptc2 = -1.5e-7 
+rsh = r_resm11*(1+drsh_mis)                pt = temp                  tfac = 1.0+ptc1*(pt-25.0)+ptc2*(pt-25.0)*(pt-25.0) 
r1 ( n1 n2 ) bsource r=rsh/mf*l*factor/(w*factor-dw)*(1+pvc1*(abs(v(n2,n1))/l/factor)+pvc2*(v(n2,n1)/l/factor)*(v(n2,n1)/l/factor))*tfac 